/*--------------------------------*- C++ -*----------------------------------*\
| =========                 |                                                 |
| \\      /  F ield         | OpenFOAM: The Open Source CFD Toolbox           |
|  \\    /   O peration     | Version:  v2406                                 |
|   \\  /    A nd           | Website:  www.openfoam.com                      |
|    \\/     M anipulation  |                                                 |
\*---------------------------------------------------------------------------*/
FoamFile
{
    version     2.0;
    format      ascii;
    class       dictionary;
    object      blockMeshDict;
}
// * * * * * * * * * * * * * * * * * * * * * * * * * * * * * * * * * * * * * //

scale   1;

vertices
(
    (-8 0 -11.97)
    (8 0 -11.97)
    (8 20.9 -11.97)
    (-8 20.9 -11.97)
    (-8 0 11.97)
    (8 0 11.97)
    (8 20.9 11.97)
    (-8 20.9 11.97)


    (-125 0 -11.97)
    (-125 20.9 -11.97)
    (-125 0 11.97)
    (-125 20.9 11.97)


    (125 0 -11.97)
    (125 20.9 -11.97)
    (125 0 11.97)
    (125 20.9 11.97)

);

blocks
(
    hex (0 1 2 3 4 5 6 7) (60 78 60) simpleGrading (1 1 1)
    hex (8 0 3 9 10 4 7 11) (40 78 60) simpleGrading (0.05 1 1)
    hex (1 12 13 2 5 14 15 6) (40 78 60) simpleGrading (20 1 1)

);

edges
(
);

boundary
(
    base
    {
        type patch;
        faces
        (
            (8 0 4 10)            
            (0 1 5 4)
            (1 12 14 5)

        );
    }
    outlet
    {
        type patch;
        faces
        (
            (3 2 6 7)
            (9 3 7 11)
            (2 13 15 6)
        );
    }
    sides
    {
        type patch;
        faces
        (
            (8 10 11 9)
            (0 1 2 3)
            (8 0 3 9)
            (1 12 13 2)
            (12 14 15 13)
            (4 5 6 7)
            (5 14 15 6)
            (10 4 7 11)
        );
    }
);

mergePatchPairs
(
);


// ************************************************************************* //
