/*--------------------------------*- C++ -*----------------------------------*\
| =========                 |                                                 |
| \\      /  F ield         | OpenFOAM: The Open Source CFD Toolbox           |
|  \\    /   O peration     | Version:  v2406                                 |
|   \\  /    A nd           | Website:  www.openfoam.com                      |
|    \\/     M anipulation  |                                                 |
\*---------------------------------------------------------------------------*/
FoamFile
{
    version     2.0;
    format      ascii;
    class       dictionary;
    object      blockMeshDict;
}
// * * * * * * * * * * * * * * * * * * * * * * * * * * * * * * * * * * * * * //

scale   1;

vertices
(
    (-8 0 -11.97)    // 0
    (8 0 -11.97)     // 1
    (8 10.45 -11.97) // 2
    (-8 10.45 -11.97)// 3
    (-8 0 11.97)     // 4
    (8 0 11.97)      // 5
    (8 10.45 11.97)  // 6
    (-8 10.45 11.97) // 7

    (-125 0 -11.97)  // 8
    (-125 10.45 -11.97) // 9
    (-125 0 11.97)   // 10
    (-125 10.45 11.97) // 11

    (125 0 -11.97)   // 12
    (125 10.45 -11.97) // 13
    (125 0 11.97)    // 14
    (125 10.45 11.97) // 15

    (8 20.9 -11.97)  // 16
    (-8 20.9 -11.97) // 17
    (-8 20.9 11.97)  // 18
    (8 20.9 11.97)   // 19

    (-125 20.9 -11.97) // 20
    (-125 20.9 11.97) // 21

    (125 20.9 -11.97) // 22
    (125 20.9 11.97)  // 23

    (-8 10 -11.97)    // 24
    (-125 10 -11.97)  // 25
    (-125 10 11.97)   // 26
    (-8 10 11.97)     // 27

    (8 10 -11.97)     // 28
    (8 10 11.97)      // 29

    (125 10 -11.97)     // 30
    (125 10 11.97)      // 31
);

blocks
(
    hex (0 1 28 24 4 5 29 27) (60 39 30) simpleGrading (1 1 1)
    hex (8 0 24 25 10 4 27 26) (60 39 30) simpleGrading (0.1 1 1)
    hex (3 2 16 17 7 6 19 18) (60 39 30) simpleGrading (1 1 1)
    hex (9 3 17 20 11 7 18 21) (60 39 30) simpleGrading (0.1 1 1)
    hex (1 12 30 28 5 14 31 29) (60 39 30) simpleGrading (10 1 1)
    hex (2 13 22 16 6 15 23 19) (60 39 30) simpleGrading (10 1 1)
    hex (28 30 13 2 29 31 15 6) (60 2 30) simpleGrading (10 1 1)
);
edges
(
);

boundary
(
    base
    {
        type patch;
        faces
        (
            // Faces inferiores 
            (0 1 5 4)   
            (8 0 4 10)   
            (1 12 14 5)
        );
    }
    outlet
    {
        type patch;
        faces
        (
            // Faces superiores 
            (17 16 19 18)
            (20 17 18 21) 
            (16 22 23 19) 
        );
    }
    sides
    {
        type patch;
        faces
        (
            // traseiros 
            (0 1 28 24)   
            (8 0 24 25)   
            (3 2 16 17)   
            (9 3 17 20)    
            (1 12 30 28)
            (28 30 13 2)
            (2 13 22 16)

            // frontais
            (4 5 29 27)   
            (10 4 27 26) 
            (7 6 19 18)  
            (11 7 18 21)   
            (5 14 31 29)
            (29 31 15 6)
            (6 15 23 19)

            // Laterais Esquerda 
            (8 10 26 25)
            (9 11 21 20)
            (25 24 27 26)
            (28 2 6 29)
            (3 2 6 7)
            (9 3 7 11)
           
            // Laterais Direita 
            (12 30 31 14)
            (30 13 15 31)
            (13 22 23 15)

            
        );
    }
);
mergePatchPairs
(
);


// ************************************************************************* //
